Version 4
SHEET 1 2276 880
WIRE 336 -336 288 -336
WIRE 336 -304 336 -336
WIRE 288 -256 288 -336
WIRE 416 -256 416 -288
WIRE 544 -256 544 -288
WIRE 656 -256 656 -288
WIRE 784 -256 784 -288
WIRE -448 -192 -480 -192
WIRE -320 -192 -368 -192
WIRE 416 -144 416 -176
WIRE 544 -144 544 -176
WIRE 656 -144 656 -176
WIRE 784 -144 784 -176
WIRE 240 -112 240 -144
WIRE 288 -112 288 -176
WIRE 288 -112 240 -112
WIRE 1152 -80 1152 -176
WIRE 1280 -80 1152 -80
WIRE -400 -48 -400 -64
WIRE -608 -32 -656 -32
WIRE -480 -32 -480 -192
WIRE -480 -32 -528 -32
WIRE -432 -32 -480 -32
WIRE -320 -16 -320 -192
WIRE -320 -16 -368 -16
WIRE -80 -16 -320 -16
WIRE 32 -16 0 -16
WIRE 1280 -16 1152 -16
WIRE -432 0 -480 0
WIRE 1152 0 1152 -16
WIRE 1152 0 1072 0
WIRE 1152 16 1152 0
WIRE -480 32 -480 0
WIRE -400 32 -400 16
WIRE 1152 112 1152 80
WIRE -448 176 -464 176
WIRE -336 176 -368 176
WIRE 128 176 80 176
WIRE 272 176 208 176
WIRE -400 336 -400 304
WIRE 608 336 608 304
WIRE 1072 336 1072 0
WIRE 1072 336 1040 336
WIRE -592 352 -624 352
WIRE -576 352 -592 352
WIRE -464 352 -464 176
WIRE -464 352 -496 352
WIRE -432 352 -464 352
WIRE 176 352 176 304
WIRE 576 352 512 352
WIRE -336 368 -336 176
WIRE -336 368 -368 368
WIRE -80 368 -336 368
WIRE 32 368 32 -16
WIRE 32 368 0 368
WIRE 80 368 80 176
WIRE 80 368 32 368
WIRE 144 368 80 368
WIRE 704 368 640 368
WIRE 736 368 704 368
WIRE 848 368 816 368
WIRE 944 368 848 368
WIRE -592 384 -592 352
WIRE -432 384 -464 384
WIRE 272 384 272 176
WIRE 272 384 208 384
WIRE 368 384 272 384
WIRE 576 384 448 384
WIRE 848 384 848 368
WIRE 144 400 112 400
WIRE 1072 400 1040 400
WIRE -464 416 -464 384
WIRE 704 416 704 368
WIRE -400 432 -400 400
WIRE 608 448 608 400
WIRE 112 464 112 400
WIRE 176 480 176 416
WIRE 848 480 848 464
WIRE -592 496 -592 464
WIRE 512 528 512 352
WIRE 704 528 704 480
WIRE 704 528 512 528
WIRE 752 528 704 528
WIRE 1072 528 1072 400
WIRE 1072 528 832 528
WIRE 1120 528 1072 528
WIRE 1312 528 1312 464
WIRE 1312 528 1200 528
WIRE 1072 576 1072 528
WIRE 1072 720 1072 656
FLAG 544 -288 PWR
FLAG 656 -288 REF
FLAG 784 -288 MOD
FLAG 544 -144 0
FLAG 656 -144 0
FLAG 784 -144 0
FLAG 1152 -176 SRC
FLAG 1152 112 0
FLAG 1072 720 0
FLAG 1312 464 CURMON
FLAG 416 -144 0
FLAG 416 -288 SRC
FLAG -624 352 MOD
FLAG -656 -32 REF
FLAG -480 32 0
FLAG -400 -64 PWR
FLAG 608 304 PWR
FLAG 176 304 PWR
FLAG 336 -304 0
FLAG 240 -144 PWR-
FLAG 608 448 PWR-
FLAG -400 32 PWR-
FLAG 176 480 PWR-
FLAG 112 464 0
FLAG -400 304 PWR
FLAG -400 432 PWR-
FLAG -464 416 0
FLAG 848 480 0
FLAG -592 496 0
SYMBOL voltage 544 -272 R0
WINDOW 123 0 0 Left 2
WINDOW 39 0 0 Left 2
SYMATTR InstName V1
SYMATTR Value 12
SYMBOL voltage 656 -272 R0
WINDOW 123 0 0 Left 2
WINDOW 39 0 0 Left 2
SYMATTR InstName V2
SYMATTR Value 1
SYMBOL voltage 784 -272 R0
WINDOW 123 0 0 Left 2
WINDOW 39 0 0 Left 2
SYMATTR InstName V3
SYMATTR Value SINE(2.5 2.5 15k)
SYMBOL schottky 1168 -16 R180
WINDOW 0 24 64 Left 2
WINDOW 3 24 0 Left 2
SYMATTR InstName D2
SYMATTR Value RB400VA-50
SYMATTR Description Diode
SYMATTR Type diode
SYMBOL schottky 1168 80 R180
WINDOW 0 24 64 Left 2
WINDOW 3 24 0 Left 2
SYMATTR InstName D3
SYMATTR Value RB400VA-50
SYMATTR Description Diode
SYMATTR Type diode
SYMBOL res 1056 560 R0
SYMATTR InstName R1
SYMATTR Value .01
SYMBOL res 1216 512 R90
WINDOW 0 0 56 VBottom 2
WINDOW 3 32 56 VTop 2
SYMATTR InstName R2
SYMATTR Value 1k
SYMBOL res 112 192 R270
WINDOW 0 32 56 VTop 2
WINDOW 3 0 56 VBottom 2
SYMATTR InstName R5
SYMATTR Value 1k
SYMBOL res -96 0 R270
WINDOW 0 32 56 VTop 2
WINDOW 3 0 56 VBottom 2
SYMATTR InstName R6
SYMATTR Value 10k
SYMBOL res -96 384 R270
WINDOW 0 32 56 VTop 2
WINDOW 3 0 56 VBottom 2
SYMATTR InstName R7
SYMATTR Value 10k
SYMBOL voltage 416 -272 R0
WINDOW 123 0 0 Left 2
WINDOW 39 0 0 Left 2
SYMATTR InstName V4
SYMATTR Value 12
SYMBOL res -624 -16 R270
WINDOW 0 32 56 VTop 2
WINDOW 3 0 56 VBottom 2
SYMATTR InstName R11
SYMATTR Value 100k
SYMBOL res -464 -176 R270
WINDOW 0 32 56 VTop 2
WINDOW 3 0 56 VBottom 2
SYMATTR InstName R12
SYMATTR Value 1k
SYMBOL TL084 -400 -80 R0
SYMATTR InstName U1
SYMBOL TL084 608 304 R0
SYMATTR InstName U2
SYMBOL TL084 176 320 R0
SYMATTR InstName U3
SYMBOL voltage 288 -272 R0
WINDOW 123 0 0 Left 2
WINDOW 39 0 0 Left 2
SYMATTR InstName V5
SYMATTR Value 12
SYMBOL LED 1264 -80 R0
SYMATTR InstName D4
SYMATTR Value W5AP-LZMZ-5K8L
SYMBOL TL084 -400 304 R0
SYMATTR InstName U4
SYMBOL res -464 192 R270
WINDOW 0 32 56 VTop 2
WINDOW 3 0 56 VBottom 2
SYMATTR InstName R10
SYMATTR Value 1k
SYMBOL res -592 368 R270
WINDOW 0 32 56 VTop 2
WINDOW 3 0 56 VBottom 2
SYMATTR InstName R14
SYMATTR Value 50k
SYMBOL AutoGenerated\\IXTH75N10L2 1008 368 R0
SYMATTR InstName U5
SYMBOL res 352 400 R270
WINDOW 0 32 56 VTop 2
WINDOW 3 0 56 VBottom 2
SYMATTR InstName R4
SYMATTR Value 1k
SYMBOL res 736 544 R270
WINDOW 0 32 56 VTop 2
WINDOW 3 0 56 VBottom 2
SYMATTR InstName R13
SYMATTR Value 1k
SYMBOL cap 688 416 R0
SYMATTR InstName C2
SYMATTR Value 22p
SYMBOL res 832 368 R0
SYMATTR InstName R15
SYMATTR Value 1Meg
SYMBOL res 720 384 R270
WINDOW 0 32 56 VTop 2
WINDOW 3 0 56 VBottom 2
SYMATTR InstName R3
SYMATTR Value 100
SYMBOL res -608 368 R0
SYMATTR InstName R8
SYMATTR Value 1Meg
TEXT -96 -320 Left 2 !.tran 0 .2m 0 .00001
TEXT -96 -288 Left 2 !.lib TL084.sub
TEXT -96 -256 Left 2 !.lib Zener_DiodesInc.lib
TEXT -96 -224 Left 2 !.lib ixth75n10l2.lib
